# Description: 1D MORB alteration simulation

SIMULATION
  SIMULATION_TYPE SUBSURFACE
  PROCESS_MODELS
    SUBSURFACE_TRANSPORT transport
      MODE GIRT
    /
  /
END

SUBSURFACE
NUMERICAL_METHODS TRANSPORT
  NEWTON_SOLVER
  /
END

# =========================== discretization ===================================

GRID
  TYPE STRUCTURED
  NXYZ 1 1 1
  BOUNDS
    0.d0 0.d0 0.d0
    1.d0 1.d0 1.d0
  /
END

#=========================== fluid properties =================================
FLUID_PROPERTY
  DIFFUSION_COEFFICIENT 1.d-9
END


TRANSPORT_CONDITION initial
  TYPE ZERO_GRADIENT
  CONSTRAINT_LIST
    0.d0 initial_constraint
  /
END
#=========================== Equation of state =================================
REFERENCE_LIQUID_DENSITY 1000.d0
# =========================== material properties ==============================
MATERIAL_PROPERTY sheeted_dykes
  ID 1
  POROSITY 0.9
END


# =========================== output options ====================================
OUTPUT
  SNAPSHOT_FILE
    FORMAT HDF5 
    PERIODIC TIME 10 y
    VARIABLES
    /
  /
  VELOCITY_AT_CENTER
END


# =========================== times ==================================
TIME
  FINAL_TIME 100 y
  MAXIMUM_TIMESTEP_SIZE 5000 y
END

# =========================== regions ==================================
REGION all
  COORDINATES
    -1.d20 -1.d20 -1.d20
    1.d20 1.d20 1.d20
  /
END


# =========================== condition couplers ===============================
# initial condition
INITIAL_CONDITION
  TRANSPORT_CONDITION initial
  REGION all
END

#=========================== stratigraphy couplers ============================
STRATA
  REGION all
  MATERIAL sheeted_dykes
END

#=========================== chemistry ======================================
CHEMISTRY
  PRIMARY_SPECIES
    H+
    Mg++
    H4SiO4(aq)
  /
  SECONDARY_SPECIES
    OH-
  /
  PASSIVE_GAS_SPECIES
  /
  MINERALS
    Talc
  /
  MINERAL_KINETICS
    # Secondary minerals
    # Amphibole
    Talc
      PREFACTOR
        RATE_CONSTANT -3d0
        ACTIVATION_ENERGY 0
      /
    /
  /
  DATABASE hanford.dat
  LOG_FORMULATION
  ACTIVITY_COEFFICIENTS TIMESTEP
  OUTPUT
    ALL
    FREE_ION
    ACTIVITY_COEFFICIENTS
    PH
    MOLALITY
    MINERAL_SATURATION_INDEX
  /
END


#=========================== constraints ======================================
CONSTRAINT initial_constraint
  CONCENTRATIONS
    H+          8.15     P
    Mg++        5.11d-2  T
    H4SiO4(aq)    1.57d-4  T
  /
  MINERALS
    # Primary minerals
    #olivine, total (40%) Fo85 (Ben's paper)
    Talc                 0.1    55 m^2/g
  /
END

CONSTRAINT inlet_constraint
  CONCENTRATIONS
    H+          8.15     P
    Mg++        5.11d-2  T
    H4SiO4(aq)    1.57d-4  T
  /
END

END_SUBSURFACE
