# Description: 1D MORB alteration simulation

SIMULATION
  SIMULATION_TYPE SUBSURFACE
  PROCESS_MODELS
    SUBSURFACE_FLOW flow
      MODE TH
    /
    SUBSURFACE_TRANSPORT transport
      MODE GIRT
    /
  /
  RESTART
    FILENAME partial_equil.chk
    RESET_TO_TIME_ZERO
  /
  CHECKPOINT
  /
END

OVERWRITE_RESTART_TRANSPORT 

SUBSURFACE

#=========================== numerical methods ================================
NUMERICAL_METHODS FLOW
  NEWTON_SOLVER
  /
END

NUMERICAL_METHODS TRANSPORT
  NEWTON_SOLVER
  /
END



# =========================== discretization ===================================
GRID
  TYPE structured
  ORIGIN 0.d0 0.d0 0.d0
  NXYZ 128 1 128
  BOUNDS
    0    0  0
    1500  100  1500
  /
END


#=========================== fluid properties =================================
FLUID_PROPERTY
  DIFFUSION_COEFFICIENT 1.d-9
END


#=========================== Equation of state =================================
EOS WATER
  DENSITY IF97
  ENTHALPY IF97
END

# =========================== material properties ==============================
MATERIAL_PROPERTY sheeted_dykes
  ID 1
  POROSITY 0.01
  TORTUOSITY 1.0d0
  PERMEABILITY
    PERM_ISO 2e-15
  /
  CHARACTERISTIC_CURVES cc1
  THERMAL_CONDUCTIVITY_DRY 1.82
  THERMAL_CONDUCTIVITY_WET 1.82
  SPECIFIC_HEAT 800
  ROCK_DENSITY 2700
END

MATERIAL_PROPERTY pillows
  ID 2
  POROSITY 0.01
  TORTUOSITY 1.0d0
  PERMEABILITY
    PERM_ISO 200.d-15
  /
  CHARACTERISTIC_CURVES cc1
  THERMAL_CONDUCTIVITY_DRY 1.82
  THERMAL_CONDUCTIVITY_WET 1.82
  SPECIFIC_HEAT 800
  ROCK_DENSITY 2700
END


MATERIAL_PROPERTY altered_pillows
  ID 3
  POROSITY 0.01
  TORTUOSITY 1.0d0
  PERMEABILITY
    PERM_ISO 20.d-15
  /
  CHARACTERISTIC_CURVES cc1
  THERMAL_CONDUCTIVITY_DRY 1.82
  THERMAL_CONDUCTIVITY_WET 1.82
  SPECIFIC_HEAT 800
  ROCK_DENSITY 2700
END

MATERIAL_PROPERTY low_perm
  ID 4
  POROSITY 0.01
  TORTUOSITY 1.0d0
  PERMEABILITY
    PERM_ISO 0.2d-15
  /
  CHARACTERISTIC_CURVES cc1
  THERMAL_CONDUCTIVITY_DRY 1.82
  THERMAL_CONDUCTIVITY_WET 1.82
  SPECIFIC_HEAT 800
  ROCK_DENSITY 2700
END


#=========================== characteristic curves ============================
CHARACTERISTIC_CURVES cc1
  skip
  SATURATION_FUNCTION VAN_GENUCHTEN
    LIQUID_RESIDUAL_SATURATION 0.1d0
    M 0.8d0
    ALPHA 1.d-4
  /
  PERMEABILITY_FUNCTION MUALEM_VG_LIQ
    LIQUID_RESIDUAL_SATURATION 0.1d0
    M 0.8d0
  /
  noskip
  DEFAULT
END


# =========================== output options ====================================
OUTPUT
  SNAPSHOT_FILE
    FORMAT HDF5 
    PERIODIC TIME 50 y
    VARIABLES
      TEMPERATURE
      LIQUID_PRESSURE
      LIQUID_DENSITY
      LIQUID_SATURATION
      LIQUID_VISCOSITY
      PERMEABILITY
      POROSITY
    /
  /
  VELOCITY_AT_CENTER
END


# =========================== times ==================================
TIME
  FINAL_TIME 7000 y
  MAXIMUM_TIMESTEP_SIZE 5000 y
  #INITIAL_TIMESTEP_SIZE 1d-16 y
END

# =========================== regions ==================================
REGION all
  COORDINATES
    0.d0 0.d0 0.d0
    1500 1.d2 1500
  /
END

REGION downwelling
  COORDINATES
    175  0.d0 1090
    1500 1.d2 1500
  /
END

REGION upwelling
  COORDINATES
    0    0.d0 1090
    60   1.d2 1500
  /
END


REGION low_perm
  COORDINATES
    60   0.d0 1090
    175  1.d2 1500
  /
END


# =========================== boundaries ==================================
REGION reaction_zone
  COORDINATES
    0.d0  0.d0  0.d0
    1500  1.d2  1.d0
  /
  FACE BOTTOM
END


REGION seafloor
  COORDINATES
    0.00d0 0.d0  1499
    1500   1.d2  1500
  /
  FACE TOP
END

REGION seafloor_in
  COORDINATES
    175    0.d0  1499
    1500   1.d2  1500
  /
  FACE TOP
END

REGION seafloor_out
  COORDINATES
    0.00  0.d0  1499
    175   1.d2  1500
  /
  FACE TOP
END



# =========================== flow conditions ==================================
FLOW_CONDITION initial
  TYPE
    LIQUID_PRESSURE HYDROSTATIC
    TEMPERATURE DIRICHLET
  /
  DATUM 0 0.d0 1500.d0
  LIQUID_PRESSURE 3.d7
  TEMPERATURE 2
  GRADIENT 
     TEMPERATURE -6.67d-4 0 -0.2
  /
END

FLOW_CONDITION seafloor_out
  TYPE
    LIQUID_PRESSURE DIRICHLET 
    ENERGY_FLUX NEUMANN
  /
  LIQUID_PRESSURE 3.d7
  ENERGY_FLUX 0.0 W/m^2
END

FLOW_CONDITION seafloor_in
  TYPE
    LIQUID_PRESSURE DIRICHLET 
    TEMPERATURE DIRICHLET
  /
  LIQUID_PRESSURE 3.d7
  TEMPERATURE 2.d0
END

FLOW_CONDITION magma_lens
  TYPE
    LIQUID_FLUX NEUMANN
    TEMPERATURE DIRICHLET
  /
  TEMPERATURE 350.d0
  LIQUID_FLUX 0.d0
END


# =========================== condition couplers ===============================
# initial condition
INITIAL_CONDITION
  FLOW_CONDITION initial
  TRANSPORT_CONDITION initial
  REGION all
END

# top boundary condition
BOUNDARY_CONDITION
  FLOW_CONDITION seafloor_in
  TRANSPORT_CONDITION seafloor
  REGION seafloor_in
END

BOUNDARY_CONDITION
  FLOW_CONDITION seafloor_out
  TRANSPORT_CONDITION empty
  REGION seafloor_out
END

# bottom boundary condition
BOUNDARY_CONDITION
  FLOW_CONDITION magma_lens
  TRANSPORT_CONDITION empty
  REGION reaction_zone
END


#=========================== stratigraphy couplers ============================
STRATA
  REGION all
  MATERIAL sheeted_dykes
END

STRATA
  REGION upwelling
  MATERIAL altered_pillows
END

STRATA
  REGION downwelling
  MATERIAL pillows
END

STRATA
  REGION low_perm
  MATERIAL low_perm
END

#=========================== chemistry ======================================
CHEMISTRY
  PRIMARY_SPECIES
    H+
    Al+++
    O2(aq)
    Mg++
    Ca++
    Fe++
    Fe+++
    HCO3-
    Cl-
    K+
    Na+
    SO4--
    SiO2(aq)
  /
  SECONDARY_SPECIES
    OH-
    Al(OH)2+
    AlO2-
    AlOH++
    CO3--
    CO2(aq)
    CaCl+
    CaCl2(aq)
    #CaOH+
    CaSO4(aq)
    FeCl+
    FeCl2(aq)
    #FeOH+
    #FeSO4(aq)
    #MgSO4(aq)
    MgCO3(aq)
    HSO4-
    HSiO3-
    KCl(aq)
    #KOH(aq)
    KSO4-
    NaOH(aq)
    #NaSO4-
  /
  PASSIVE_GAS_SPECIES
    CO2(g)
    O2(g)
  /
  MINERALS
    # Primary minerals
    # Olivine, total 40% Fo85 (Ben's paper)
    Forsterite
    Fayalite
    # CPX Di85 He15 
    Diopside
    Hedenbergite
    # Plagiocalse An70 
    Anorthite
    Albite

    # Secondary minerals
    # Amphibole
    Tremolite
    Actinolite

    # Serpentine
    Chrysotile
    Talc

    Hematite

    Quartz

    # Smectites
    Saponite-Mg
    Celadonite

    # Epidotes
    Epidote
    Clinozoisite

    # Chlorites
    Chamosite-7A
    Clinochlore-7A

    # Na-zeolites
    Natrolite

    Anhydrite
    Calcite
  /
  MINERAL_KINETICS
    # Primary minerals
    # Olivine, total 40% Fo85 (Ben's paper)
    Forsterite
      PREFACTOR
        RATE_CONSTANT -10.64d0
        ACTIVATION_ENERGY 79.0d3
      /
      PREFACTOR
        RATE_CONSTANT -6.85d0
        ACTIVATION_ENERGY 67.2d3
        PREFACTOR_SPECIES H+
          ALPHA 0.470
        /
      /
    /
    Fayalite
      PREFACTOR
        RATE_CONSTANT -10.64d0
        ACTIVATION_ENERGY 79.0d3
      /
      PREFACTOR
        RATE_CONSTANT -6.85d0
        ACTIVATION_ENERGY 67.2d3
        PREFACTOR_SPECIES H+
          ALPHA 0.470
        /
      /
    /
    # CPX Di85 He15 
    Diopside
      PREFACTOR
        RATE_CONSTANT -12.24d0
        ACTIVATION_ENERGY 80.0d3
      /
      PREFACTOR
        RATE_CONSTANT -8.54d0
        ACTIVATION_ENERGY 80.0d3
        PREFACTOR_SPECIES H+
          ALPHA 0.60
        /
      /
    /
    Hedenbergite
      PREFACTOR
        RATE_CONSTANT -12.24d0
        ACTIVATION_ENERGY 80.0d3
      /
      PREFACTOR
        RATE_CONSTANT -8.54d0
        ACTIVATION_ENERGY 80.0d3
        PREFACTOR_SPECIES H+
          ALPHA 0.60
        /
      /
    /
    # Plagiocalse An70 
    Anorthite
      PREFACTOR
        RATE_CONSTANT -12.56d0
        ACTIVATION_ENERGY 69.8d3
      /
      PREFACTOR
        RATE_CONSTANT -10.16d0
        ACTIVATION_ENERGY 65.0d3
        PREFACTOR_SPECIES H+
          ALPHA 0.457
        /
      /
      PREFACTOR
        RATE_CONSTANT -15.60d0
        ACTIVATION_ENERGY 71.0d3
        PREFACTOR_SPECIES H+
          ALPHA -0.572
        /
      /
    /
    Albite
      PREFACTOR
        RATE_CONSTANT -11.15d0
        ACTIVATION_ENERGY 69.8d3
      /
      PREFACTOR
        RATE_CONSTANT -10.16d0
        ACTIVATION_ENERGY 65.0d3
        PREFACTOR_SPECIES H+
          ALPHA 0.457
        /
      /
      PREFACTOR
        RATE_CONSTANT -15.60d0
        ACTIVATION_ENERGY 71.0d3
        PREFACTOR_SPECIES H+
          ALPHA -0.572
        /
      /
    /

    # Secondary minerals
    # Amphibole
    Tremolite
      PREFACTOR
        RATE_CONSTANT -12.52d0
        ACTIVATION_ENERGY 88.0d3
      /
      PREFACTOR
        RATE_CONSTANT -11.11d0
        ACTIVATION_ENERGY 88.0d3
        PREFACTOR_SPECIES H+
          ALPHA 0.5
        /
      /
    /
    Actinolite
      PREFACTOR
        RATE_CONSTANT -12.52d0
        ACTIVATION_ENERGY 88.0d3
      /
      PREFACTOR
        RATE_CONSTANT -11.11d0
        ACTIVATION_ENERGY 88.0d3
        PREFACTOR_SPECIES H+
          ALPHA 0.5
        /
      /
    /

    # Serpentine
    Chrysotile
      PREFACTOR
        RATE_CONSTANT -12.52d0
        ACTIVATION_ENERGY 88.0d3
      /
      PREFACTOR
        RATE_CONSTANT -11.11d0
        ACTIVATION_ENERGY 88.0d3
        PREFACTOR_SPECIES H+
          ALPHA 0.5
        /
      /
    /
    Talc
      PREFACTOR
        RATE_CONSTANT -12.52d0
        ACTIVATION_ENERGY 88.0d3
      /
      PREFACTOR
        RATE_CONSTANT -11.11d0
        ACTIVATION_ENERGY 88.0d3
        PREFACTOR_SPECIES H+
          ALPHA 0.5
        /
      /
    /

    #Oxides
    #Hematite
    #  PREFACTOR
    #    RATE_CONSTANT -14.6
    #    ACTIVATION_ENERGY 66.2d3
    #  /
    #/

    Quartz
      PREFACTOR
        RATE_CONSTANT -13.99
        ACTIVATION_ENERGY 87.7d3
      /
    /

    # Smectites
    Saponite-Mg
      PREFACTOR
        RATE_CONSTANT -12.52d0
        ACTIVATION_ENERGY 88.0d3
      /
      PREFACTOR
        RATE_CONSTANT -11.11d0
        ACTIVATION_ENERGY 88.0d3
        PREFACTOR_SPECIES H+
          ALPHA 0.5
        /
      /
    /
    Celadonite
      PREFACTOR
        RATE_CONSTANT -12.52d0
        ACTIVATION_ENERGY 88.0d3
      /
      PREFACTOR
        RATE_CONSTANT -11.11d0
        ACTIVATION_ENERGY 88.0d3
        PREFACTOR_SPECIES H+
          ALPHA 0.5
        /
      /
    /
    # Epidotes
    Epidote
      PREFACTOR
        RATE_CONSTANT -12.52d0
        ACTIVATION_ENERGY 88.0d3
      /
      PREFACTOR
        RATE_CONSTANT -11.11d0
        ACTIVATION_ENERGY 88.0d3
        PREFACTOR_SPECIES H+
          ALPHA 0.5
        /
      /
    /
    Clinozoisite
      PREFACTOR
        RATE_CONSTANT -12.52d0
        ACTIVATION_ENERGY 88.0d3
      /
      PREFACTOR
        RATE_CONSTANT -11.11d0
        ACTIVATION_ENERGY 88.0d3
        PREFACTOR_SPECIES H+
          ALPHA 0.5
        /
      /
    /
    # Chlorites
    Chamosite-7A
      PREFACTOR
        RATE_CONSTANT -12.52d0
        ACTIVATION_ENERGY 88.0d3
      /
      PREFACTOR
        RATE_CONSTANT -11.11d0
        ACTIVATION_ENERGY 88.0d3
        PREFACTOR_SPECIES H+
          ALPHA 0.5
        /
      /
    /
    Clinochlore-7A
      PREFACTOR
        RATE_CONSTANT -12.52d0
        ACTIVATION_ENERGY 88.0d3
      /
      PREFACTOR
        RATE_CONSTANT -11.11d0
        ACTIVATION_ENERGY 88.0d3
        PREFACTOR_SPECIES H+
          ALPHA 0.5
        /
      /
    /

    # Na-zeolites
    Natrolite
      PREFACTOR
        RATE_CONSTANT -12.52d0
        ACTIVATION_ENERGY 88.0d3
      /
      PREFACTOR
        RATE_CONSTANT -11.11d0
        ACTIVATION_ENERGY 88.0d3
        PREFACTOR_SPECIES H+
          ALPHA 0.5
        /
      /
    /

    Anhydrite
      PREFACTOR
        RATE_CONSTANT -6.5d0
        ACTIVATION_ENERGY 28.0d3
      /
    /
    Calcite
      PREFACTOR
        RATE_CONSTANT -6.74d0
        ACTIVATION_ENERGY 66.0d3
      /
      PREFACTOR
        RATE_CONSTANT -2.71d0
        ACTIVATION_ENERGY 67.0d3
        PREFACTOR_SPECIES HCO3-
          ALPHA 1.63
        /
      /
    /
  /
  DATABASE thermo_300bars.dat
  LOG_FORMULATION
  ACTIVITY_COEFFICIENTS TIMESTEP
  OUTPUT
    ALL
    TOTAL
    PH
    MOLALITY
    MINERAL_SATURATION_INDEX
  /
END


#=========================== transport conditions =============================
TRANSPORT_CONDITION initial
  TYPE ZERO_GRADIENT
  CONSTRAINT_LIST
    0.d0 initial_constraint
  /
END

TRANSPORT_CONDITION seafloor
  TYPE DIRICHLET_ZERO_GRADIENT
  CONSTRAINT_LIST
    0.d0 inlet_constraint
  /
END

TRANSPORT_CONDITION empty
  TYPE DIRICHLET_ZERO_GRADIENT
  CONSTRAINT_LIST
    0.d0 empty
  /
END


#=========================== constraints ======================================
CONSTRAINT initial_constraint
  CONCENTRATIONS
    H+          8.15     P
    Al+++       0.037d-9 T
    O2(aq)      1.0d-18  T
    Mg++        52.8d-3  T
    Ca++        10.3d-3  T
    Fe++        1.0d-15  T
    Fe+++       1.0d-9   T
    HCO3-       2.06d-3  T
    Cl-         474d-3   Z
    K+          10.2d-3  T
    Na+         474d-3   T
    SO4--       28.2d-3  T
    SiO2(aq)    0.17d-3  T
  /
  MINERALS
    # Primary minerals
    #olivine, total (40%) Fo85 (Ben's paper)
    Forsterite           0.0415     4d-8 cm^2/g
    Fayalite             0.0070     4d-8 cm^2/g

    #CPX Di85 He15
    Diopside             0.315      4d-8 cm^2/g
    Hedenbergite         0.050      4d-8 cm^2/g

    #plagioclase An70
    Anorthite            0.3825     4d-8 cm^2/g
    Albite               0.1625     4d-8 cm^2/g

    ## Secondary minerals
    #amphibole
    Tremolite            1.0e-10    8d-8 cm^2/g
    Actinolite           1.0e-10    8d-8 cm^2/g
    
    #serpentine
    Chrysotile           1.0E-10    8d-8 cm^2/g
    Talc                 1.0E-10    8d-8 cm^2/g

    # Oxides
    #Hematite             1.0E-10    8d-8 cm^2/g

    Quartz               1.0E-10    8d-8 cm^2/g

    #smectites
    Saponite-Mg          1.0E-10    8d-8 cm^2/g
    Celadonite           1.0e-10    8d-8 cm^2/g

    #Epidotes
    Epidote              1.0e-10    8d-8 cm^2/g
    Clinozoisite         1.0e-10    8d-8 cm^2/g

    #Chlorites
    Chamosite-7A         1.0e-10    8d-8 cm^2/g
    Clinochlore-7A       1.0e-10    8d-8 cm^2/g

    #Na-Zeolites
    Natrolite            1.0e-10    8d-8 cm^2/g

    #Sulphates
    Anhydrite            1.0E-10    8d-8 cm^2/g

    #Carbonates
    Calcite              1.0E-10    8d-8 cm^2/g
  /
END

CONSTRAINT inlet_constraint
  CONCENTRATIONS
    H+          8.15     P
    Al+++       0.037d-9 T
    O2(aq)      1.0d-18  T  
    Mg++        52.8d-3  T 
    Ca++        10.3d-3  T
    Fe++        1.0d-15  T
    Fe+++       1.0d-9   T
    HCO3-       2.06d-3  T
    Cl-         474d-3   Z
    K+          10.2d-3  T
    Na+         474d-3   T
    SO4--       28.2d-3  T
    SiO2(aq)    0.17d-3  T
  /
END

CONSTRAINT empty
  CONCENTRATIONS
    H+          1.d-15 T
    Al+++       1.d-15 T
    O2(aq)      1.d-15 T
    Mg++        1.d-15 T
    Ca++        1.d-15 T
    Fe++        1.d-15 T
    Fe+++       1.d-15 T
    HCO3-       1.d-15 T
    Cl-         1.d-15 T
    K+          1.d-15 T
    Na+         1.d-15 T
    SO4--       1.d-15 T
    SiO2(aq)    1.d-15 T
  /
END

END_SUBSURFACE
