# Description: 1D MORB alteration simulation

SIMULATION
  SIMULATION_TYPE SUBSURFACE
  PROCESS_MODELS
    SUBSURFACE_FLOW flow
      MODE TH
    /
    SUBSURFACE_TRANSPORT transport
      MODE GIRT
    /
  /
  RESTART
    FILENAME partial_equil-restart.h5
    RESET_TO_TIME_ZERO
  /
  CHECKPOINT
    FORMAT HDF5
  /
END


SUBSURFACE


#=========================== numerical methods ================================
NUMERICAL_METHODS FLOW
  NEWTON_SOLVER
    ITOL_UPDATE 1000
  /
END

NUMERICAL_METHODS TRANSPORT
END


# =========================== discretization ===================================
GRID
  TYPE structured
  ORIGIN 0.d0 0.d0 0.d0
  NXYZ 32 1 32
  BOUNDS
    0    0  0
    1500  100  1500
  /
END


#=========================== fluid properties =================================
FLUID_PROPERTY
  DIFFUSION_COEFFICIENT 1.d-9
END


#=========================== Equation of state =================================
EOS WATER
  DENSITY PLANAR
  ENTHALPY DEFAULT
END

# =========================== material properties ==============================
MATERIAL_PROPERTY sheeted_dykes
  ID 1
  POROSITY 0.01
  TORTUOSITY 1.0d0
  PERMEABILITY
    PERM_ISO 2e-15
  /
  CHARACTERISTIC_CURVES cc1
  THERMAL_CONDUCTIVITY_DRY 1.82
  THERMAL_CONDUCTIVITY_WET 1.82
  SPECIFIC_HEAT 800
  ROCK_DENSITY 2700
END

MATERIAL_PROPERTY pillows
  ID 2
  POROSITY 0.01
  TORTUOSITY 1.0d0
  PERMEABILITY
    PERM_ISO 200.d-15
  /
  CHARACTERISTIC_CURVES cc1
  THERMAL_CONDUCTIVITY_DRY 1.82
  THERMAL_CONDUCTIVITY_WET 1.82
  SPECIFIC_HEAT 800
  ROCK_DENSITY 2700
END


MATERIAL_PROPERTY altered_pillows
  ID 3
  POROSITY 0.01
  TORTUOSITY 1.0d0
  PERMEABILITY
    PERM_ISO 20.d-15
  /
  CHARACTERISTIC_CURVES cc1
  THERMAL_CONDUCTIVITY_DRY 1.82
  THERMAL_CONDUCTIVITY_WET 1.82
  SPECIFIC_HEAT 800
  ROCK_DENSITY 2700
END

MATERIAL_PROPERTY low_perm
  ID 4
  POROSITY 0.01
  TORTUOSITY 1.0d0
  PERMEABILITY
    PERM_ISO 0.2d-15
  /
  CHARACTERISTIC_CURVES cc1
  THERMAL_CONDUCTIVITY_DRY 1.82
  THERMAL_CONDUCTIVITY_WET 1.82
  SPECIFIC_HEAT 800
  ROCK_DENSITY 2700
END


#=========================== characteristic curves ============================
CHARACTERISTIC_CURVES cc1
  SATURATION_FUNCTION VAN_GENUCHTEN
    LIQUID_RESIDUAL_SATURATION 0.1d0
    M 0.8d0
    ALPHA 1.d-4
  /
  PERMEABILITY_FUNCTION MUALEM_VG_LIQ
    LIQUID_RESIDUAL_SATURATION 0.1d0
    M 0.8d0
  /
END


# =========================== output options ====================================
OUTPUT
  SNAPSHOT_FILE
    FORMAT HDF5 
    PERIODIC TIME 10 y
    VARIABLES
      TEMPERATURE
      LIQUID_PRESSURE
      LIQUID_DENSITY
      LIQUID_SATURATION
      LIQUID_VISCOSITY
      PERMEABILITY
      POROSITY
    /
  /
  VELOCITY_AT_CENTER
END


# =========================== times ==================================
TIME
  FINAL_TIME 1000 y
  MAXIMUM_TIMESTEP_SIZE 1 y
  INITIAL_TIMESTEP_SIZE 1d-28 y
END

# =========================== regions ==================================
REGION all
  COORDINATES
    0.d0 0.d0 0.d0
    1500 1.d2 1500
  /
END

REGION downwelling
  COORDINATES
    175  0.d0 1090
    1500 1.d2 1500
  /
END

REGION upwelling
  COORDINATES
    0    0.d0 1090
    60   1.d2 1500
  /
END


REGION low_perm
  COORDINATES
    60   0.d0 1090
    175  1.d2 1500
  /
END


# =========================== boundaries ==================================
REGION reaction_zone
  COORDINATES
    0.d0  0.d0  0.d0
    1500  1.d2  1.d0
  /
  FACE BOTTOM
END

REGION seafloor
  COORDINATES
    0.00d0 0.d0  1499
    1500   1.d2  1500
  /
  FACE TOP
END

REGION seafloor_in
  COORDINATES
    175    0.d0  1499
    1500   1.d2  1500
  /
  FACE TOP
END

REGION seafloor_out
  COORDINATES
    0.00  0.d0  1499
    175   1.d2  1500
  /
  FACE TOP
END



# =========================== flow conditions ==================================
FLOW_CONDITION initial
  TYPE
    LIQUID_PRESSURE HYDROSTATIC
    TEMPERATURE DIRICHLET
  /
  DATUM 0 0.d0 1500.d0
  LIQUID_PRESSURE 10.d7
  TEMPERATURE 600
END

FLOW_CONDITION seafloor_out
  TYPE
    LIQUID_PRESSURE DIRICHLET 
    ENERGY_FLUX NEUMANN
  /
  LIQUID_PRESSURE 10.d7
  ENERGY_FLUX 0.0 W/m^2
END

FLOW_CONDITION seafloor_in
  TYPE
    LIQUID_PRESSURE DIRICHLET 
    TEMPERATURE DIRICHLET
  /
  LIQUID_PRESSURE 10.d7
  TEMPERATURE 2.d0
END

FLOW_CONDITION magma_lens
  TYPE
    LIQUID_FLUX NEUMANN
    TEMPERATURE DIRICHLET
  /
  TEMPERATURE DATASET temperature
  LIQUID_FLUX 0.d0
END

DATASET temperature
  FILENAME temperature.h5
  HDF5_DATASET_NAME temperature
END

# =========================== condition couplers ===============================
# initial condition
INITIAL_CONDITION
  FLOW_CONDITION initial
  TRANSPORT_CONDITION initial
  REGION all
END

# top boundary condition
BOUNDARY_CONDITION
  FLOW_CONDITION seafloor_in
  TRANSPORT_CONDITION seafloor
  REGION seafloor_in
END

BOUNDARY_CONDITION
  FLOW_CONDITION seafloor_out
  TRANSPORT_CONDITION exit
  REGION seafloor_out
END

# bottom boundary condition
BOUNDARY_CONDITION
  FLOW_CONDITION magma_lens
  TRANSPORT_CONDITION empty
  REGION reaction_zone
END

#=========================== stratigraphy couplers ============================
STRATA
  REGION all
  MATERIAL sheeted_dykes
END

STRATA
  REGION upwelling
  MATERIAL altered_pillows
END

STRATA
  REGION downwelling
  MATERIAL pillows
END

STRATA
  REGION low_perm
  MATERIAL low_perm
END

#=========================== chemistry ======================================
CHEMISTRY
  PRIMARY_SPECIES
    H+
    Al+++
   #O2(aq)
    Mg++
    Ca++
    Fe++
    Fe+++
    HCO3-
    Cl-
    K+
    Na+
    SO4--
    SiO2(aq)
    Tracer
    Tracer_Age
  /
  SECONDARY_SPECIES
    OH-
    Al(OH)2+
    AlOH++
    CO3--
    CO2(aq)
    CaCl2(aq)
    CaSO4(aq)
    FeCl+
    FeCl2(aq)
    MgCO3(aq)
    HSO4-
    HSiO3-
    KCl(aq)
    KOH(aq)
    KSO4-
    NaOH(aq)
  /
  PASSIVE_GAS_SPECIES
    #CO2(g)
    #O2(g)
  /
  MINERALS
    # Primary minerals
    # Olivine, total 40% Fo85 (Ben's paper)
    Forsterite
    Fayalite
    # CPX Di85 He15 
    Diopside
    Hedenbergite

    # Plagiocalse An70 
    Anorthite
    Albite

    # Secondary minerals
    # Amphibole
    Tremolite

    # Inosilicate
    Prehnite

    # Serpentine
    Talc

    Hematite

    Quartz

    # Mica
    Annite

    # Smectites
    Saponite_Mg

    # Epidotes
    Epidote
    Zoisite

    # Chlorites
    Chamosite
    Clinochlore

    # Na-zeolites
    Analcime

    Anhydrite
    Calcite
  /
  MINERAL_KINETICS
    # Primary minerals
    # Olivine, total 40% Fo85 (Ben's paper)
    Forsterite
      PREFACTOR
        RATE_CONSTANT -7.16d0
        ACTIVATION_ENERGY 70.4d3 J/mol
        PREFACTOR_SPECIES H+
          ALPHA 0.4
        /
      /
      PREFACTOR
        RATE_CONSTANT -8.33d0
        ACTIVATION_ENERGY 60.9d3 J/mol
        PREFACTOR_SPECIES H+
          ALPHA 0.2
        /
      /
    /
    Fayalite
      PREFACTOR
        RATE_CONSTANT -6.26d0
        ACTIVATION_ENERGY 70.4d3 J/mol
        PREFACTOR_SPECIES H+
          ALPHA 0.4
        /
      /
      PREFACTOR
        RATE_CONSTANT -7.39d0
        ACTIVATION_ENERGY 60.9d3 J/mol
        PREFACTOR_SPECIES H+
          ALPHA 0.2
        /
      /
    /

    # CPX Di85 He15 
    Diopside
      PREFACTOR
        RATE_CONSTANT -9.8d0
        ACTIVATION_ENERGY 32.7d3 J/mol
        PREFACTOR_SPECIES H+
          ALPHA 0.3
        /
      /
      PREFACTOR
        RATE_CONSTANT -11.0d0
        ACTIVATION_ENERGY 43.9d3 J/mol
      /
    /
    Hedenbergite
      # Using Hermanska Augite kinetics as "general" pyroxene
      PREFACTOR
        RATE_CONSTANT -8.20d0
        ACTIVATION_ENERGY 81.8d3 J/mol
        PREFACTOR_SPECIES H+
          ALPHA 0.7
        /
      /
      PREFACTOR
        RATE_CONSTANT -12.8d0
        ACTIVATION_ENERGY 83.0d3 J/mol
      /
    /

    # Plagiocalse An70 
    Anorthite
      PREFACTOR
        RATE_CONSTANT -5.17d0
        ACTIVATION_ENERGY 58.0d3 J/mol
        PREFACTOR_SPECIES H+
          ALPHA 1.2
        /
      /
      PREFACTOR
        RATE_CONSTANT -11.34d0
        ACTIVATION_ENERGY 60.0d3 J/mol
      /
      PREFACTOR
        RATE_CONSTANT -13.6d0
        ACTIVATION_ENERGY 50.0d3 J/mol
        PREFACTOR_SPECIES H+
          ALPHA -0.3
        /
      /
    /
    Albite
      PREFACTOR
        RATE_CONSTANT -10.30d0
        ACTIVATION_ENERGY 58.0d3 J/mol
        PREFACTOR_SPECIES H+
          ALPHA 0.3
        /
      /
      PREFACTOR
        RATE_CONSTANT -11.19d0
        ACTIVATION_ENERGY 60.0d3 J/mol
      /
      PREFACTOR
        RATE_CONSTANT -13.6d0
        ACTIVATION_ENERGY 50.0d3 J/mol
        PREFACTOR_SPECIES H+
          ALPHA -0.3
        /
      /
    /

    # Secondary minerals
    # Amphibole
    Tremolite
      PREFACTOR
        RATE_CONSTANT -11.3d0
        ACTIVATION_ENERGY 50.0d3 J/mol
        PREFACTOR_SPECIES H+
          ALPHA 0.2
        /
      /
      PREFACTOR
        RATE_CONSTANT -13.1d0
        ACTIVATION_ENERGY 48.0d3 J/mol
      /
    /

    # Inosilicate
    Prehnite
      PREFACTOR
        RATE_CONSTANT -10.4
        ACTIVATION_ENERGY 77.0e3 J/mol
        PREFACTOR_SPECIES H+
          ALPHA 0.3
        /
      /
      PREFACTOR
        RATE_CONSTANT -14.0
        ACTIVATION_ENERGY 80.0e3 J/mol
      /
      PREFACTOR
        RATE_CONSTANT -12.8
        ACTIVATION_ENERGY 80.0e3 J/mol
        PREFACTOR_SPECIES H+
          ALPHA -0.075
        /
      /
    /

    # Serpentine
    Talc
      PREFACTOR
        RATE_CONSTANT -11.1d0
        ACTIVATION_ENERGY 50.2d3 J/mol
        PREFACTOR_SPECIES H+
          ALPHA 0.36
        /
      /
      PREFACTOR
        RATE_CONSTANT -12.9d0
        ACTIVATION_ENERGY 40.7d3 J/mol
      /
    /

    #Oxides
    #Hematite
    #  PREFACTOR
    #    RATE_CONSTANT -14.6
    #    ACTIVATION_ENERGY 66.2d3
    #  /
    #/

    Quartz
      PREFACTOR
        RATE_CONSTANT -11.4d0
        ACTIVATION_ENERGY 45.6d3 J/mol
        PREFACTOR_SPECIES H+
          ALPHA 0.3
        /
      /
      PREFACTOR
        RATE_CONSTANT -15.0d0
        ACTIVATION_ENERGY 80.0d3 J/mol
        PREFACTOR_SPECIES H+
          ALPHA -0.4
        /
      /
    /

    # Mica
    Annite
      PREFACTOR
        RATE_CONSTANT -9.42d0
        ACTIVATION_ENERGY 18.2d3 J/mol
        PREFACTOR_SPECIES H+
          ALPHA 0.5
        /
      /
      PREFACTOR
        RATE_CONSTANT -12.2d0
        ACTIVATION_ENERGY 22.0d3 J/mol
      /
      PREFACTOR
        RATE_CONSTANT -13.9d0
        ACTIVATION_ENERGY 25.5d3 J/mol
        PREFACTOR_SPECIES H+
          ALPHA -0.2
        /
      /
    /

    # Smectites
    Saponite_Mg
      PREFACTOR
        RATE_CONSTANT -11.7d0
        ACTIVATION_ENERGY 50.8d3 J/mol
        PREFACTOR_SPECIES H+
          ALPHA 0.55
        /
      /
      PREFACTOR
        RATE_CONSTANT -14.3d0
        ACTIVATION_ENERGY 30.0d3 J/mol
      /
      PREFACTOR
        RATE_CONSTANT -17.2d0
        ACTIVATION_ENERGY 48.0d3 J/mol
        PREFACTOR_SPECIES H+
          ALPHA -0.3
        /
      /
    /


    # Epidotes
    Epidote
      PREFACTOR
        RATE_CONSTANT -10.47d0
        ACTIVATION_ENERGY 60.0d3 J/mol
        PREFACTOR_SPECIES H+
          ALPHA 0.3
        /
      /
      PREFACTOR
        RATE_CONSTANT -11.9d0
        ACTIVATION_ENERGY 43.2d3 J/mol
      /
      PREFACTOR
        RATE_CONSTANT -16.3d0
        ACTIVATION_ENERGY 42.3d3 J/mol
        PREFACTOR_SPECIES H+
          ALPHA -0.4
        /
      /
    /
    Zoisite
      PREFACTOR
        RATE_CONSTANT -10.47d0
        ACTIVATION_ENERGY 60.0d3 J/mol
        PREFACTOR_SPECIES H+
          ALPHA 0.3
        /
      /
      PREFACTOR
        RATE_CONSTANT -11.9d0
        ACTIVATION_ENERGY 43.2d3 J/mol
      /
      PREFACTOR
        RATE_CONSTANT -16.3d0
        ACTIVATION_ENERGY 42.3d3 J/mol
        PREFACTOR_SPECIES H+
          ALPHA -0.4
        /
      /
    /
    # Chlorites
    Chamosite
      PREFACTOR
        RATE_CONSTANT -9.08d0
        ACTIVATION_ENERGY 30.0d3 J/mol
        PREFACTOR_SPECIES H+
          ALPHA 0.74
        /
      /
      PREFACTOR
        RATE_CONSTANT -13.0d0
        ACTIVATION_ENERGY 15.0d3 J/mol
      /
      PREFACTOR
        RATE_CONSTANT -14.3d0
        ACTIVATION_ENERGY 15.0d3 J/mol
        PREFACTOR_SPECIES H+
          ALPHA -0.2
        /
      /
    /

    Clinochlore
      PREFACTOR
        RATE_CONSTANT -9.08d0
        ACTIVATION_ENERGY 30.0d3 J/mol
        PREFACTOR_SPECIES H+
          ALPHA 0.74
        /
      /
      PREFACTOR
        RATE_CONSTANT -13.0d0
        ACTIVATION_ENERGY 15.0d3 J/mol
      /
      PREFACTOR
        RATE_CONSTANT -14.3d0
        ACTIVATION_ENERGY 15.0d3 J/mol
        PREFACTOR_SPECIES H+
          ALPHA -0.2
        /
      /
    /

    # Na-zeolites
    Analcime
      PREFACTOR
        RATE_CONSTANT -3.3
        ACTIVATION_ENERGY 63.0d3 J/mol
        PREFACTOR_SPECIES H+
          ALPHA 1.0
        /
      /
      PREFACTOR
        RATE_CONSTANT -11.3
        ACTIVATION_ENERGY 58.5d3 J/mol
      /
      PREFACTOR
        RATE_CONSTANT -14.3
        ACTIVATION_ENERGY 58.0d3 J/mol
        PREFACTOR_SPECIES H+
          ALPHA -0.4
        /
      /
    /

    Anhydrite
      PREFACTOR
        RATE_CONSTANT -6.5d0
        ACTIVATION_ENERGY 28.0d3 J/mol
      /
    /
    Calcite
      PREFACTOR
        RATE_CONSTANT -6.74d0
        ACTIVATION_ENERGY 66.0d3 J/mol
      /
      PREFACTOR
        RATE_CONSTANT -2.71d0
        ACTIVATION_ENERGY 67.0d3 J/mol
        PREFACTOR_SPECIES HCO3-
          ALPHA 1.63
        /
      /
    /
  /
  DATABASE thermo_500bars.dat
  #UPDATE_POROSITY
  MAXIMUM_REACTION_CUTS 100
  LOG_FORMULATION
  DECOUPLED_EQUILIBRIUM_REACTIONS
    Fe+++
    /
  ACTIVITY_COEFFICIENTS OFF
  ACTIVITY_WATER FALSE
  OUTPUT
    ALL
    TOTAL
    PH
    MOLARITY
    MINERAL_SATURATION_INDEX
    MINERAL_SURFACE_AREA
    AGE
    /
END


#=========================== transport conditions =============================
TRANSPORT_CONDITION initial
  TYPE ZERO_GRADIENT
  CONSTRAINT_LIST
    0.d0 initial_constraint
  /
END

TRANSPORT_CONDITION seafloor
  TYPE DIRICHLET_ZERO_GRADIENT
  CONSTRAINT_LIST
    0.d0 inlet_constraint
  /
END

TRANSPORT_CONDITION empty
  TYPE MEMBRANE_FILTER
  CONSTRAINT_LIST
    0.d0 empty
  /
END

TRANSPORT_CONDITION exit
  TYPE DIRICHLET_ZERO_GRADIENT
  CONSTRAINT_LIST
    0.d0 empty
  /
END


#=========================== constraints ======================================
CONSTRAINT initial_constraint
  CONCENTRATIONS
    H+          8.15     P
    Al+++       0.037d-9 T
   #O2(aq)      1.0d-18  T
    Mg++        52.8d-3  T
    Ca++        10.3d-3  T
    Fe++        1.0d-15  T
    Fe+++       1.0d-9   T
    HCO3-       2.06d-3  T
    Cl-         536e-3   T
    K+          10.2d-3  T
    Na+         474d-3   T
    SO4--       28.2d-3  T
    SiO2(aq)    0.17d-3  T
    Tracer      1e-32    T
    Tracer_Age  1e-32    T
  /
  MINERALS
    # Primary minerals
    #olivine, total (40%) Fo85 (Ben's paper)
    Forsterite           0.0415     1e-5
    Fayalite             0.0070     1e-2

    #CPX Di85 He15
    Diopside             0.315      5e-5
    Hedenbergite         0.050      1e-4

    #plagioclase An7
    Anorthite            0.3825     2.75e-5
    Albite               0.1625     1e1
    skip
    Forsterite           0.0415     1e-6
    Fayalite             0.0070     1e-6

    #CPX Di85 He15
    Diopside             0.315      1e-6
    Hedenbergite         0.050      1e-6

    #plagioclase An7
    Anorthite            0.3825     1e-6
    Albite               0.1625     1e-6
    noskip

    ## Secondary minerals
    #amphibole
    Tremolite            1.0e-10    5e-2

    # Inosilicate 
    Prehnite             1.0e-10    5e-2

    #serpentine
    Talc                 1.0E-10    5e-2

    # Oxides
    #Hematite             1.0E-10   00003 cm^2/g

    Quartz               1.0E-10    5e-2

    # Mica
    Annite               1.0E-10    5e-2

    #smectites
    Saponite_Mg          1.0E-10    5e-2

    #Epidotes
    Epidote              1.0e-10    5e-2
    Zoisite              1.0e-10    5e-2

    #Chlorites
    Chamosite         1.0e-10    5e-2
    Clinochlore       1.0e-10    5e-2

    #Na-Zeolites
    Analcime             1.0e-10    5e-2

    #Sulphates
    Anhydrite            1.0E-10    5e-2

    #Carbonates
    Calcite              1.0E-10    5e-2
  /
END

CONSTRAINT inlet_constraint
  CONCENTRATIONS
    H+          8.15     P
    Al+++       0.037d-9 T
   #O2(aq)      1.0d-18  T  
    Mg++        52.8d-3  T
    Ca++        10.3d-3  T
    Fe++        1.0d-15  T
    Fe+++       1.0d-9   T
    HCO3-       2.06d-3  T
    Cl-         536e-3   T
    K+          10.2d-3  T
    Na+         474d-3   T
    SO4--       28.2d-3  T
    SiO2(aq)    0.17d-3  T
    Tracer      1e-16     T
    Tracer_Age 1e-16    T
  /
END

CONSTRAINT empty
  CONCENTRATIONS
    H+          1e-15 T
    Al+++       1e-15 T
   #O2(aq)      1e-15 T
    Mg++        1e-15 T
    Ca++        1e-15 T
    Fe++        1e-15 T
    Fe+++       1e-15 T
    HCO3-       1e-15 T
    Cl-         1e-15 T
    K+          1e-15 T
    Na+         1e-15 T
    SO4--       1e-15 T
    SiO2(aq)    1e-15 T
    Tracer      1e-16 T
    Tracer_Age 1e-16 T
  /
  FREE_ION_GUESS
    H+          1e-15 
    Al+++       1e-15 
   #O2(aq)      1e-15 
    Mg++        1e-15 
    Ca++        1e-15 
    Fe++        1e-15 
    Fe+++       1e-15 
    HCO3-       1e-15 
    Cl-         1e-15 
    K+          1e-15 
    Na+         1e-15 
    SO4--       1e-15 
    SiO2(aq)    1e-15 
    Tracer      1e-16
    Tracer_Age 1e-16    
  /
END

END_SUBSURFACE
